1455
  -OEChem-05142410302D

 44 46  0     0  0  0  0  0  0999 V2000
    2.0000   -2.7500    0.0000 Cl  0  0  0  0  0  0  0  0  0  0  0  0
    3.7320    4.2500    0.0000 Cl  0  0  0  0  0  0  0  0  0  0  0  0
    7.1962    4.2500    0.0000 Cl  0  0  0  0  0  0  0  0  0  0  0  0
    3.7320   -1.7500    0.0000 O   0  0  0  0  0  0  0  0  0  0  0  0
    5.4641    3.2500    0.0000 O   0  0  0  0  0  0  0  0  0  0  0  0
    3.7320   -5.7500    0.0000 O   0  0  0  0  0  0  0  0  0  0  0  0
    4.5981   -0.2500    0.0000 C   0  0  0  0  0  0  0  0  0  0  0  0
    4.5981    1.7500    0.0000 C   0  0  0  0  0  0  0  0  0  0  0  0
    4.5981   -1.2500    0.0000 C   0  0  0  0  0  0  0  0  0  0  0  0
    4.5981    2.7500    0.0000 C   0  0  0  0  0  0  0  0  0  0  0  0
    3.7320    0.2500    0.0000 C   0  0  0  0  0  0  0  0  0  0  0  0
    5.4641    0.2500    0.0000 C   0  0  0  0  0  0  0  0  0  0  0  0
    3.7320    1.2500    0.0000 C   0  0  0  0  0  0  0  0  0  0  0  0
    5.4641    1.2500    0.0000 C   0  0  0  0  0  0  0  0  0  0  0  0
    3.7320   -2.7500    0.0000 C   0  0  0  0  0  0  0  0  0  0  0  0
    5.4641    4.2500    0.0000 C   0  0  0  0  0  0  0  0  0  0  0  0
    2.8660   -3.2500    0.0000 C   0  0  0  0  0  0  0  0  0  0  0  0
    4.5981   -3.2500    0.0000 C   0  0  0  0  0  0  0  0  0  0  0  0
    3.7320   -4.7500    0.0000 C   0  0  0  0  0  0  0  0  0  0  0  0
    2.8660   -4.2500    0.0000 C   0  0  0  0  0  0  0  0  0  0  0  0
    4.5981   -4.2500    0.0000 C   0  0  0  0  0  0  0  0  0  0  0  0
    4.5981    4.7500    0.0000 C   0  0  0  0  0  0  0  0  0  0  0  0
    6.3301    4.7500    0.0000 C   0  0  0  0  0  0  0  0  0  0  0  0
    4.5981    5.7500    0.0000 C   0  0  0  0  0  0  0  0  0  0  0  0
    6.3301    5.7500    0.0000 C   0  0  0  0  0  0  0  0  0  0  0  0
    5.4641    6.2500    0.0000 C   0  0  0  0  0  0  0  0  0  0  0  0
    4.5981   -6.2500    0.0000 C   0  0  0  0  0  0  0  0  0  0  0  0
    4.8101   -1.8326    0.0000 H   0  0  0  0  0  0  0  0  0  0  0  0
    5.2087   -1.1423    0.0000 H   0  0  0  0  0  0  0  0  0  0  0  0
    4.3860    3.3326    0.0000 H   0  0  0  0  0  0  0  0  0  0  0  0
    3.9875    2.6423    0.0000 H   0  0  0  0  0  0  0  0  0  0  0  0
    3.1951   -0.0600    0.0000 H   0  0  0  0  0  0  0  0  0  0  0  0
    6.0010   -0.0600    0.0000 H   0  0  0  0  0  0  0  0  0  0  0  0
    3.1951    1.5600    0.0000 H   0  0  0  0  0  0  0  0  0  0  0  0
    6.0010    1.5600    0.0000 H   0  0  0  0  0  0  0  0  0  0  0  0
    5.1350   -2.9400    0.0000 H   0  0  0  0  0  0  0  0  0  0  0  0
    2.3291   -4.5600    0.0000 H   0  0  0  0  0  0  0  0  0  0  0  0
    5.1350   -4.5600    0.0000 H   0  0  0  0  0  0  0  0  0  0  0  0
    4.0611    6.0600    0.0000 H   0  0  0  0  0  0  0  0  0  0  0  0
    6.8671    6.0600    0.0000 H   0  0  0  0  0  0  0  0  0  0  0  0
    5.4641    6.8700    0.0000 H   0  0  0  0  0  0  0  0  0  0  0  0
    4.2881   -6.7869    0.0000 H   0  0  0  0  0  0  0  0  0  0  0  0
    5.1350   -6.5600    0.0000 H   0  0  0  0  0  0  0  0  0  0  0  0
    4.9081   -5.7131    0.0000 H   0  0  0  0  0  0  0  0  0  0  0  0
  1 17  1  0  0  0  0
  2 22  1  0  0  0  0
  3 23  1  0  0  0  0
  4  9  1  0  0  0  0
  4 15  1  0  0  0  0
  5 10  1  0  0  0  0
  5 16  1  0  0  0  0
  6 19  1  0  0  0  0
  6 27  1  0  0  0  0
  7  9  1  0  0  0  0
  7 11  2  0  0  0  0
  7 12  1  0  0  0  0
  8 10  1  0  0  0  0
  8 13  2  0  0  0  0
  8 14  1  0  0  0  0
  9 28  1  0  0  0  0
  9 29  1  0  0  0  0
 10 30  1  0  0  0  0
 10 31  1  0  0  0  0
 11 13  1  0  0  0  0
 11 32  1  0  0  0  0
 12 14  2  0  0  0  0
 12 33  1  0  0  0  0
 13 34  1  0  0  0  0
 14 35  1  0  0  0  0
 15 17  2  0  0  0  0
 15 18  1  0  0  0  0
 16 22  2  0  0  0  0
 16 23  1  0  0  0  0
 17 20  1  0  0  0  0
 18 21  2  0  0  0  0
 18 36  1  0  0  0  0
 19 20  2  0  0  0  0
 19 21  1  0  0  0  0
 20 37  1  0  0  0  0
 21 38  1  0  0  0  0
 22 24  1  0  0  0  0
 23 25  2  0  0  0  0
 24 26  2  0  0  0  0
 24 39  1  0  0  0  0
 25 26  1  0  0  0  0
 25 40  1  0  0  0  0
 26 41  1  0  0  0  0
 27 42  1  0  0  0  0
 27 43  1  0  0  0  0
 27 44  1  0  0  0  0
M  END
> <PUBCHEM_COMPOUND_CID>
1455

> <PUBCHEM_COMPOUND_CANONICALIZED>
1

> <PUBCHEM_CACTVS_COMPLEXITY>
421

> <PUBCHEM_CACTVS_HBOND_ACCEPTOR>
3

> <PUBCHEM_CACTVS_HBOND_DONOR>
0

> <PUBCHEM_CACTVS_ROTATABLE_BOND>
7

> <PUBCHEM_CACTVS_SUBSKEYS>
AAADceB4MAAGAAAAAAAAAAAAAAAAAAAAAAAwYMAAAAAAAAABUAAAGgIAAAAADAagmCIyBoAABACAAiBCAAACCAAgJUAIiAAGC4gMJiOFMxqCOCCkwBEIqAfAwDAOQQAAAQCACACCAAACAQAQAAAAAAAAAA==

> <PUBCHEM_IUPAC_OPENEYE_NAME>
1,3-dichloro-2-[[4-[(2-chloro-4-methoxy-phenoxy)methyl]phenyl]methoxy]benzene

> <PUBCHEM_IUPAC_CAS_NAME>
1,3-dichloro-2-[[4-[(2-chloro-4-methoxyphenoxy)methyl]phenyl]methoxy]benzene

> <PUBCHEM_IUPAC_NAME_MARKUP>
1,3-dichloro-2-[[4-[(2-chloro-4-methoxyphenoxy)methyl]phenyl]methoxy]benzene

> <PUBCHEM_IUPAC_NAME>
1,3-dichloro-2-[[4-[(2-chloro-4-methoxyphenoxy)methyl]phenyl]methoxy]benzene

> <PUBCHEM_IUPAC_SYSTEMATIC_NAME>
1,3-bis(chloranyl)-2-[[4-[(2-chloranyl-4-methoxy-phenoxy)methyl]phenyl]methoxy]benzene

> <PUBCHEM_IUPAC_TRADITIONAL_NAME>
1,3-dichloro-2-[4-[(2-chloro-4-methoxy-phenoxy)methyl]benzyl]oxy-benzene

> <PUBCHEM_IUPAC_INCHI>
InChI=1S/C21H17Cl3O3/c1-25-16-9-10-20(19(24)11-16)26-12-14-5-7-15(8-6-14)13-27-21-17(22)3-2-4-18(21)23/h2-11H,12-13H2,1H3

> <PUBCHEM_IUPAC_INCHIKEY>
XXMDDBVNWRWNCW-UHFFFAOYSA-N

> <PUBCHEM_XLOGP3_AA>
6.7

> <PUBCHEM_EXACT_MASS>
422.024327

> <PUBCHEM_MOLECULAR_FORMULA>
C21H17Cl3O3

> <PUBCHEM_MOLECULAR_WEIGHT>
423.7

> <PUBCHEM_OPENEYE_CAN_SMILES>
COC1=CC(=C(C=C1)OCC2=CC=C(C=C2)COC3=C(C=CC=C3Cl)Cl)Cl

> <PUBCHEM_OPENEYE_ISO_SMILES>
COC1=CC(=C(C=C1)OCC2=CC=C(C=C2)COC3=C(C=CC=C3Cl)Cl)Cl

> <PUBCHEM_CACTVS_TPSA>
27.7

> <PUBCHEM_MONOISOTOPIC_WEIGHT>
422.024327

> <PUBCHEM_TOTAL_CHARGE>
0

> <PUBCHEM_HEAVY_ATOM_COUNT>
27

> <PUBCHEM_ATOM_DEF_STEREO_COUNT>
0

> <PUBCHEM_ATOM_UDEF_STEREO_COUNT>
0

> <PUBCHEM_BOND_DEF_STEREO_COUNT>
0

> <PUBCHEM_BOND_UDEF_STEREO_COUNT>
0

> <PUBCHEM_ISOTOPIC_ATOM_COUNT>
0

> <PUBCHEM_COMPONENT_COUNT>
1

> <PUBCHEM_CACTVS_TAUTO_COUNT>
-1

> <PUBCHEM_COORDINATE_TYPE>
1
5
255

> <PUBCHEM_BONDANNOTATIONS>
11  13  8
12  14  8
15  17  8
15  18  8
16  22  8
16  23  8
17  20  8
18  21  8
19  20  8
19  21  8
22  24  8
23  25  8
24  26  8
25  26  8
7  11  8
7  12  8
8  13  8
8  14  8

$$$$