2737651
  -OEChem-05142410262D

 17 18  0     0  0  0  0  0  0999 V2000
    2.8660   -1.3450    0.0000 O   0  0  0  0  0  0  0  0  0  0  0  0
    4.6783   -0.1497    0.0000 N   0  0  0  0  0  0  0  0  0  0  0  0
    3.7320    0.1550    0.0000 C   0  0  0  0  0  0  0  0  0  0  0  0
    3.7320    1.1550    0.0000 C   0  0  0  0  0  0  0  0  0  0  0  0
    2.8660   -0.3450    0.0000 C   0  0  0  0  0  0  0  0  0  0  0  0
    4.6783    1.4597    0.0000 C   0  0  0  0  0  0  0  0  0  0  0  0
    2.8660    1.6550    0.0000 C   0  0  0  0  0  0  0  0  0  0  0  0
    5.2619    0.6550    0.0000 C   0  0  0  0  0  0  0  0  0  0  0  0
    2.0000    0.1550    0.0000 C   0  0  0  0  0  0  0  0  0  0  0  0
    2.0000    1.1550    0.0000 C   0  0  0  0  0  0  0  0  0  0  0  0
    4.8709   -0.7391    0.0000 H   0  0  0  0  0  0  0  0  0  0  0  0
    4.8709    2.0490    0.0000 H   0  0  0  0  0  0  0  0  0  0  0  0
    2.8660    2.2750    0.0000 H   0  0  0  0  0  0  0  0  0  0  0  0
    5.8819    0.6550    0.0000 H   0  0  0  0  0  0  0  0  0  0  0  0
    1.4631   -0.1550    0.0000 H   0  0  0  0  0  0  0  0  0  0  0  0
    1.4631    1.4650    0.0000 H   0  0  0  0  0  0  0  0  0  0  0  0
    2.3291   -1.6550    0.0000 H   0  0  0  0  0  0  0  0  0  0  0  0
  1  5  1  0  0  0  0
  1 17  1  0  0  0  0
  2  3  1  0  0  0  0
  2  8  1  0  0  0  0
  2 11  1  0  0  0  0
  3  4  2  0  0  0  0
  3  5  1  0  0  0  0
  4  6  1  0  0  0  0
  4  7  1  0  0  0  0
  5  9  2  0  0  0  0
  6  8  2  0  0  0  0
  6 12  1  0  0  0  0
  7 10  2  0  0  0  0
  7 13  1  0  0  0  0
  8 14  1  0  0  0  0
  9 10  1  0  0  0  0
  9 15  1  0  0  0  0
 10 16  1  0  0  0  0
M  END
> <PUBCHEM_COMPOUND_CID>
2737651

> <PUBCHEM_COMPOUND_CANONICALIZED>
1

> <PUBCHEM_CACTVS_COMPLEXITY>
126

> <PUBCHEM_CACTVS_HBOND_ACCEPTOR>
1

> <PUBCHEM_CACTVS_HBOND_DONOR>
2

> <PUBCHEM_CACTVS_ROTATABLE_BOND>
0

> <PUBCHEM_CACTVS_SUBSKEYS>
AAADcYByIAAAAAAAAAAAAAAAAAAAAWAAAAAwAAAAAAAAAFgB8AAAHgAQCAAADAzBngQ8xvLJkgCgAzRnRASCgCAxYiAI2aA/bJgKJuLSkZOEcAhk0BHY2AeQ0LAOAAABAAACEAAAAAIAAAQgAAAAAAAAAA==

> <PUBCHEM_IUPAC_OPENEYE_NAME>
1H-indol-7-ol

> <PUBCHEM_IUPAC_CAS_NAME>
1H-indol-7-ol

> <PUBCHEM_IUPAC_NAME_MARKUP>
1<I>H</I>-indol-7-ol

> <PUBCHEM_IUPAC_NAME>
1H-indol-7-ol

> <PUBCHEM_IUPAC_SYSTEMATIC_NAME>
1H-indol-7-ol

> <PUBCHEM_IUPAC_TRADITIONAL_NAME>
1H-indol-7-ol

> <PUBCHEM_IUPAC_INCHI>
InChI=1S/C8H7NO/c10-7-3-1-2-6-4-5-9-8(6)7/h1-5,9-10H

> <PUBCHEM_IUPAC_INCHIKEY>
ORVPXPKEZLTMNW-UHFFFAOYSA-N

> <PUBCHEM_XLOGP3>
2.4

> <PUBCHEM_EXACT_MASS>
133.052763847

> <PUBCHEM_MOLECULAR_FORMULA>
C8H7NO

> <PUBCHEM_MOLECULAR_WEIGHT>
133.15

> <PUBCHEM_OPENEYE_CAN_SMILES>
C1=CC2=C(C(=C1)O)NC=C2

> <PUBCHEM_OPENEYE_ISO_SMILES>
C1=CC2=C(C(=C1)O)NC=C2

> <PUBCHEM_CACTVS_TPSA>
36

> <PUBCHEM_MONOISOTOPIC_WEIGHT>
133.052763847

> <PUBCHEM_TOTAL_CHARGE>
0

> <PUBCHEM_HEAVY_ATOM_COUNT>
10

> <PUBCHEM_ATOM_DEF_STEREO_COUNT>
0

> <PUBCHEM_ATOM_UDEF_STEREO_COUNT>
0

> <PUBCHEM_BOND_DEF_STEREO_COUNT>
0

> <PUBCHEM_BOND_UDEF_STEREO_COUNT>
0

> <PUBCHEM_ISOTOPIC_ATOM_COUNT>
0

> <PUBCHEM_COMPONENT_COUNT>
1

> <PUBCHEM_CACTVS_TAUTO_COUNT>
-1

> <PUBCHEM_COORDINATE_TYPE>
1
5
255

> <PUBCHEM_BONDANNOTATIONS>
2  3  8
2  8  8
3  4  8
3  5  8
4  6  8
4  7  8
5  9  8
6  8  8
7  10  8
9  10  8

$$$$